  
       XFOIL         Version 6.99
  
 Calculated polar for:                                                 
  
 1 1 Reynolds number fixed          Mach number fixed         
  
 xtrf =   1.000 (top)        1.000 (bottom)  
 Mach =   0.292     Re =    14.971 e 6     Ncrit =   9.000
  
   alpha    CL        CD       CDp       CM     Top_Xtr  Bot_Xtr
  ------ -------- --------- --------- -------- -------- --------
  -5.000  -0.0735   0.00645   0.00191  -0.1122   0.5224   0.0049
  -4.000   0.0480   0.00624   0.00164  -0.1129   0.4905   0.0062
  -3.000   0.1704   0.00606   0.00143  -0.1139   0.4678   0.0095
  -2.000   0.2880   0.00463   0.00082  -0.1150   0.4463   0.3324
  -1.000   0.4116   0.00459   0.00083  -0.1163   0.4275   0.3722
   0.000   0.5353   0.00466   0.00089  -0.1176   0.4104   0.3935
   1.000   0.6568   0.00488   0.00103  -0.1184   0.3809   0.4050
   2.000   0.7768   0.00517   0.00122  -0.1188   0.3484   0.4153
   3.000   0.8929   0.00563   0.00154  -0.1184   0.3015   0.4260
   4.000   1.0027   0.00635   0.00204  -0.1168   0.2375   0.4415
   5.000   1.1054   0.00734   0.00276  -0.1137   0.1631   0.4570
   6.000   1.1997   0.00856   0.00369  -0.1090   0.0901   0.4719
   7.000   1.2708   0.01009   0.00495  -0.0997   0.0253   0.4855
   8.000   1.3518   0.01099   0.00586  -0.0922   0.0213   0.4972
   9.000   1.4325   0.01200   0.00692  -0.0849   0.0208   0.5097
  11.000   1.5416   0.01655   0.01157  -0.0652   0.0067   0.5391
  12.000   1.5906   0.02002   0.01515  -0.0570   0.0051   0.5560
  13.000   1.6312   0.02472   0.01999  -0.0498   0.0038   0.5783
  14.000   1.6599   0.03111   0.02654  -0.0437   0.0022   0.6060
  15.000   1.6814   0.03912   0.03477  -0.0393   0.0014   0.6420
  17.000   1.6984   0.06020   0.05690  -0.0360   0.0008   1.0000
  18.000   1.6973   0.07369   0.07060  -0.0375   0.0007   1.0000
  19.000   1.6876   0.08938   0.08651  -0.0415   0.0006   1.0000
  20.000   1.6686   0.10735   0.10472  -0.0481   0.0005   1.0000
  21.000   1.6426   0.12705   0.12467  -0.0572   0.0004   1.0000
  22.000   1.6136   0.14754   0.14541  -0.0685   0.0003   1.0000
  23.000   1.5817   0.16862   0.16673  -0.0817   0.0003   1.0000
  24.000   1.5467   0.19024   0.18858  -0.0968   0.0003   1.0000
  25.000   1.5077   0.21285   0.21142  -0.1137   0.0002   1.0000
  26.000   1.4729   0.23490   0.23366  -0.1310   0.0002   1.0000
  28.000   1.3953   0.28280   0.28192  -0.1687   0.0002   1.0000
  29.000   1.3600   0.30805   0.30732  -0.1874   0.0002   1.0000
  30.000   1.3358   0.33233   0.33171  -0.2044   0.0002   1.0000
